new circuit.lv30_315bus basekv=0.4 phases=3 bus1=sourcebus model=ideal


redirect Linecodes.dss
redirect lines.dss
redirect Loads.dss
redirect Switches.dss
redirect Groundings.dss

new line.for_energymeter lineCode=ughv_400al_triplex_ug_4w_bundled bus1=sourcebus bus2=B2518 length=0.0001 units=km phases=4
New EnergyMeter.Source     Element=Line.for_energymeter Terminal=1  