new circuit.lv30_315bus angle=0.0000000000 basekv=0.4 phases=3 bus1=B468 model=ideal


set defaultbasefrequency=50.0000000000
set basefrequency=50.0000000000

redirect Linecodes.dss
redirect lines.dss
redirect Loads.dss
// redirect Transformers.dss
redirect Switches.dss
redirect Groundings.dss

// batchedit load..* kw=1
solve
export Voltages

