new transformer.Tx1108 leadlag=euro xhl=0.0391918358845 wdg=1 bus=B271 conn=delta kv=11.0000000000 tap=1.05000000000 %r=0.400000000000 kva=500.000000000 wdg=2 bus=B468 conn=wye kv=0.433000000000 tap=1.00000000000 %r=0.400000000000 kva=500.000000000
