new line.L1 lineCode=uglv_240al_xlpe/nyl/pvc_ug_4w_bundled bus1=B1.1.2.3.4 bus2=B2.1.2.3.4 length=0.4 units=km phases=4
