new load.Ld73_LOAD_A phases=1 bus1=B2.1.4 kv=0.249992666559  vminpu=0.1 vmaxpu=2 kw=10 kvar=5
